<?xml version="1.0" encoding="UTF-8"?>

<!-- generated on 2026-05-18T13:51:13.948647+03:00 by Eclipse SUMO netconvert 1.26.0
<netconvertConfiguration xmlns:xsi="http://www.w3.org/2001/XMLSchema-instance" xsi:noNamespaceSchemaLocation="http://sumo.dlr.de/xsd/netconvertConfiguration.xsd">

    <input>
        <node-files value="highway.node.xml"/>
        <edge-files value="highway.edg.xml"/>
    </input>

    <output>
        <output-file value="highway.net.xml"/>
    </output>

</netconvertConfiguration>
-->

<net version="1.20" junctionCornerDetail="5" limitTurnSpeed="5.50" xmlns:xsi="http://www.w3.org/2001/XMLSchema-instance" xsi:noNamespaceSchemaLocation="http://sumo.dlr.de/xsd/net_file.xsd">

    <location netOffset="0.00,0.00" convBoundary="0.00,0.00,50000.00,0.00" origBoundary="0.00,0.00,50000.00,0.00" projParameter="!"/>

    <edge id="highway_edge" from="node_start" to="node_end" priority="-1">
        <lane id="highway_edge_0" index="0" speed="35.00" length="50000.00" width="3.60" shape="0.00,-9.00 50000.00,-9.00"/>
        <lane id="highway_edge_1" index="1" speed="35.00" length="50000.00" width="3.60" shape="0.00,-5.40 50000.00,-5.40"/>
        <lane id="highway_edge_2" index="2" speed="35.00" length="50000.00" width="3.60" shape="0.00,-1.80 50000.00,-1.80"/>
    </edge>

    <junction id="node_end" type="dead_end" x="50000.00" y="0.00" incLanes="highway_edge_0 highway_edge_1 highway_edge_2" intLanes="" shape="50000.00,-10.80 50000.00,0.00"/>
    <junction id="node_start" type="dead_end" x="0.00" y="0.00" incLanes="" intLanes="" shape="0.00,0.00 0.00,-10.80"/>

</net>
